/*--------------------------------*- C++ -*----------------------------------*\
  =========                 |
  \\      /  F ield         | OpenFOAM: The Open Source CFD Toolbox
   \\    /   O peration     | Website:  https://openfoam.org
    \\  /    A nd           | Version:  10
     \\/     M anipulation  |
\*---------------------------------------------------------------------------*/
FoamFile
{
    format      ascii;
    class       dictionary;
    object      blockMeshDict;
}
// * * * * * * * * * * * * * * * * * * * * * * * * * * * * * * * * * * * * * //


 vertices
 ( 
   (    0.000000   -1.219000    0.000000 )
   (    0.985000   -1.219000    0.000000 )
   (    1.204000   -1.219000    0.000000 )
   (    2.572000   -1.219000    0.000000 )
   (    2.982000   -1.219000    0.000000 )
   (    5.718000   -1.219000    0.000000 )
   (    6.128000   -1.219000    0.000000 )
   (    8.864000   -1.219000    0.000000 )
   (    9.010000   -1.219000    0.000000 )
   (   10.010000   -1.219000    0.000000 )
   (   11.207000   -1.219000    0.000000 )
   (   12.192000   -1.219000    0.000000 )
   (    0.000000   -0.915000    0.000000 )
   (    0.985000   -0.915000    0.000000 )
   (    1.204000   -0.915000    0.000000 )
   (    2.572000   -0.915000    0.000000 )
   (    2.982000   -0.915000    0.000000 )
   (    5.718000   -0.915000    0.000000 )
   (    6.128000   -0.915000    0.000000 )
   (    8.864000   -0.915000    0.000000 )
   (    9.010000   -0.915000    0.000000 )
   (   10.010000   -0.915000    0.000000 )
   (   11.207000   -0.915000    0.000000 )
   (   12.192000   -0.915000    0.000000 )
   (    0.000000   -0.190000    0.000000 )
   (    0.985000   -0.190000    0.000000 )
   (    1.204000   -0.190000    0.000000 )
   (    2.572000   -0.190000    0.000000 )
   (    2.982000   -0.190000    0.000000 )
   (    5.718000   -0.190000    0.000000 )
   (    6.128000   -0.190000    0.000000 )
   (    8.864000   -0.190000    0.000000 )
   (    9.010000   -0.190000    0.000000 )
   (   10.010000   -0.190000    0.000000 )
   (   11.207000   -0.190000    0.000000 )
   (   12.192000   -0.190000    0.000000 )
   (    0.000000    0.190000    0.000000 )
   (    0.985000    0.190000    0.000000 )
   (    1.204000    0.190000    0.000000 )
   (    2.572000    0.190000    0.000000 )
   (    2.982000    0.190000    0.000000 )
   (    5.718000    0.190000    0.000000 )
   (    6.128000    0.190000    0.000000 )
   (    8.864000    0.190000    0.000000 )
   (    9.010000    0.190000    0.000000 )
   (   10.010000    0.190000    0.000000 )
   (   11.207000    0.190000    0.000000 )
   (   12.192000    0.190000    0.000000 )
   (    0.000000    0.915000    0.000000 )
   (    0.985000    0.915000    0.000000 )
   (    1.204000    0.915000    0.000000 )
   (    2.572000    0.915000    0.000000 )
   (    2.982000    0.915000    0.000000 )
   (    5.718000    0.915000    0.000000 )
   (    6.128000    0.915000    0.000000 )
   (    8.864000    0.915000    0.000000 )
   (    9.010000    0.915000    0.000000 )
   (   10.010000    0.915000    0.000000 )
   (   11.207000    0.915000    0.000000 )
   (   12.192000    0.915000    0.000000 )
   (    0.000000    1.219000    0.000000 )
   (    0.985000    1.219000    0.000000 )
   (    1.204000    1.219000    0.000000 )
   (    2.572000    1.219000    0.000000 )
   (    2.982000    1.219000    0.000000 )
   (    5.718000    1.219000    0.000000 )
   (    6.128000    1.219000    0.000000 )
   (    8.864000    1.219000    0.000000 )
   (    9.010000    1.219000    0.000000 )
   (   10.010000    1.219000    0.000000 )
   (   11.207000    1.219000    0.000000 )
   (   12.192000    1.219000    0.000000 )
   (    0.000000   -1.219000    2.052000 )
   (    0.985000   -1.219000    2.052000 )
   (    1.204000   -1.219000    2.052000 )
   (    2.572000   -1.219000    2.052000 )
   (    2.982000   -1.219000    2.052000 )
   (    5.718000   -1.219000    2.052000 )
   (    6.128000   -1.219000    2.052000 )
   (    8.864000   -1.219000    2.052000 )
   (    9.010000   -1.219000    2.052000 )
   (   10.010000   -1.219000    2.052000 )
   (   11.207000   -1.219000    2.052000 )
   (   12.192000   -1.219000    2.052000 )
   (    0.000000   -0.915000    2.052000 )
   (    0.985000   -0.915000    2.052000 )
   (    1.204000   -0.915000    2.052000 )
   (    2.572000   -0.915000    2.052000 )
   (    2.982000   -0.915000    2.052000 )
   (    5.718000   -0.915000    2.052000 )
   (    6.128000   -0.915000    2.052000 )
   (    8.864000   -0.915000    2.052000 )
   (    9.010000   -0.915000    2.052000 )
   (   10.010000   -0.915000    2.052000 )
   (   11.207000   -0.915000    2.052000 )
   (   12.192000   -0.915000    2.052000 )
   (    0.000000   -0.190000    2.052000 )
   (    0.985000   -0.190000    2.052000 )
   (    1.204000   -0.190000    2.052000 )
   (    2.572000   -0.190000    2.052000 )
   (    2.982000   -0.190000    2.052000 )
   (    5.718000   -0.190000    2.052000 )
   (    6.128000   -0.190000    2.052000 )
   (    8.864000   -0.190000    2.052000 )
   (    9.010000   -0.190000    2.052000 )
   (   10.010000   -0.190000    2.052000 )
   (   11.207000   -0.190000    2.052000 )
   (   12.192000   -0.190000    2.052000 )
   (    0.000000    0.190000    2.052000 )
   (    0.985000    0.190000    2.052000 )
   (    1.204000    0.190000    2.052000 )
   (    2.572000    0.190000    2.052000 )
   (    2.982000    0.190000    2.052000 )
   (    5.718000    0.190000    2.052000 )
   (    6.128000    0.190000    2.052000 )
   (    8.864000    0.190000    2.052000 )
   (    9.010000    0.190000    2.052000 )
   (   10.010000    0.190000    2.052000 )
   (   11.207000    0.190000    2.052000 )
   (   12.192000    0.190000    2.052000 )
   (    0.000000    0.915000    2.052000 )
   (    0.985000    0.915000    2.052000 )
   (    1.204000    0.915000    2.052000 )
   (    2.572000    0.915000    2.052000 )
   (    2.982000    0.915000    2.052000 )
   (    5.718000    0.915000    2.052000 )
   (    6.128000    0.915000    2.052000 )
   (    8.864000    0.915000    2.052000 )
   (    9.010000    0.915000    2.052000 )
   (   10.010000    0.915000    2.052000 )
   (   11.207000    0.915000    2.052000 )
   (   12.192000    0.915000    2.052000 )
   (    0.000000    1.219000    2.052000 )
   (    0.985000    1.219000    2.052000 )
   (    1.204000    1.219000    2.052000 )
   (    2.572000    1.219000    2.052000 )
   (    2.982000    1.219000    2.052000 )
   (    5.718000    1.219000    2.052000 )
   (    6.128000    1.219000    2.052000 )
   (    8.864000    1.219000    2.052000 )
   (    9.010000    1.219000    2.052000 )
   (   10.010000    1.219000    2.052000 )
   (   11.207000    1.219000    2.052000 )
   (   12.192000    1.219000    2.052000 )
   (    0.000000   -1.219000    2.200000 )
   (    0.985000   -1.219000    2.200000 )
   (    1.204000   -1.219000    2.200000 )
   (    2.572000   -1.219000    2.200000 )
   (    2.982000   -1.219000    2.200000 )
   (    5.718000   -1.219000    2.200000 )
   (    6.128000   -1.219000    2.200000 )
   (    8.864000   -1.219000    2.200000 )
   (    9.010000   -1.219000    2.200000 )
   (   10.010000   -1.219000    2.200000 )
   (   11.207000   -1.219000    2.200000 )
   (   12.192000   -1.219000    2.200000 )
   (    0.000000   -0.915000    2.200000 )
   (    0.985000   -0.915000    2.200000 )
   (    1.204000   -0.915000    2.200000 )
   (    2.572000   -0.915000    2.200000 )
   (    2.982000   -0.915000    2.200000 )
   (    5.718000   -0.915000    2.200000 )
   (    6.128000   -0.915000    2.200000 )
   (    8.864000   -0.915000    2.200000 )
   (    9.010000   -0.915000    2.200000 )
   (   10.010000   -0.915000    2.200000 )
   (   11.207000   -0.915000    2.200000 )
   (   12.192000   -0.915000    2.200000 )
   (    0.000000   -0.190000    2.200000 )
   (    0.985000   -0.190000    2.200000 )
   (    1.204000   -0.190000    2.200000 )
   (    2.572000   -0.190000    2.200000 )
   (    2.982000   -0.190000    2.200000 )
   (    5.718000   -0.190000    2.200000 )
   (    6.128000   -0.190000    2.200000 )
   (    8.864000   -0.190000    2.200000 )
   (    9.010000   -0.190000    2.200000 )
   (   10.010000   -0.190000    2.200000 )
   (   11.207000   -0.190000    2.200000 )
   (   12.192000   -0.190000    2.200000 )
   (    0.000000    0.190000    2.200000 )
   (    0.985000    0.190000    2.200000 )
   (    1.204000    0.190000    2.200000 )
   (    2.572000    0.190000    2.200000 )
   (    2.982000    0.190000    2.200000 )
   (    5.718000    0.190000    2.200000 )
   (    6.128000    0.190000    2.200000 )
   (    8.864000    0.190000    2.200000 )
   (    9.010000    0.190000    2.200000 )
   (   10.010000    0.190000    2.200000 )
   (   11.207000    0.190000    2.200000 )
   (   12.192000    0.190000    2.200000 )
   (    0.000000    0.915000    2.200000 )
   (    0.985000    0.915000    2.200000 )
   (    1.204000    0.915000    2.200000 )
   (    2.572000    0.915000    2.200000 )
   (    2.982000    0.915000    2.200000 )
   (    5.718000    0.915000    2.200000 )
   (    6.128000    0.915000    2.200000 )
   (    8.864000    0.915000    2.200000 )
   (    9.010000    0.915000    2.200000 )
   (   10.010000    0.915000    2.200000 )
   (   11.207000    0.915000    2.200000 )
   (   12.192000    0.915000    2.200000 )
   (    0.000000    1.219000    2.200000 )
   (    0.985000    1.219000    2.200000 )
   (    1.204000    1.219000    2.200000 )
   (    2.572000    1.219000    2.200000 )
   (    2.982000    1.219000    2.200000 )
   (    5.718000    1.219000    2.200000 )
   (    6.128000    1.219000    2.200000 )
   (    8.864000    1.219000    2.200000 )
   (    9.010000    1.219000    2.200000 )
   (   10.010000    1.219000    2.200000 )
   (   11.207000    1.219000    2.200000 )
   (   12.192000    1.219000    2.200000 )
   (    0.000000   -1.219000    2.896000 )
   (    0.985000   -1.219000    2.896000 )
   (    1.204000   -1.219000    2.896000 )
   (    2.572000   -1.219000    2.896000 )
   (    2.982000   -1.219000    2.896000 )
   (    5.718000   -1.219000    2.896000 )
   (    6.128000   -1.219000    2.896000 )
   (    8.864000   -1.219000    2.896000 )
   (    9.010000   -1.219000    2.896000 )
   (   10.010000   -1.219000    2.896000 )
   (   11.207000   -1.219000    2.896000 )
   (   12.192000   -1.219000    2.896000 )
   (    0.000000   -0.915000    2.896000 )
   (    0.985000   -0.915000    2.896000 )
   (    1.204000   -0.915000    2.896000 )
   (    2.572000   -0.915000    2.896000 )
   (    2.982000   -0.915000    2.896000 )
   (    5.718000   -0.915000    2.896000 )
   (    6.128000   -0.915000    2.896000 )
   (    8.864000   -0.915000    2.896000 )
   (    9.010000   -0.915000    2.896000 )
   (   10.010000   -0.915000    2.896000 )
   (   11.207000   -0.915000    2.896000 )
   (   12.192000   -0.915000    2.896000 )
   (    0.000000   -0.190000    2.896000 )
   (    0.985000   -0.190000    2.896000 )
   (    1.204000   -0.190000    2.896000 )
   (    2.572000   -0.190000    2.896000 )
   (    2.982000   -0.190000    2.896000 )
   (    5.718000   -0.190000    2.896000 )
   (    6.128000   -0.190000    2.896000 )
   (    8.864000   -0.190000    2.896000 )
   (    9.010000   -0.190000    2.896000 )
   (   10.010000   -0.190000    2.896000 )
   (   11.207000   -0.190000    2.896000 )
   (   12.192000   -0.190000    2.896000 )
   (    0.000000    0.190000    2.896000 )
   (    0.985000    0.190000    2.896000 )
   (    1.204000    0.190000    2.896000 )
   (    2.572000    0.190000    2.896000 )
   (    2.982000    0.190000    2.896000 )
   (    5.718000    0.190000    2.896000 )
   (    6.128000    0.190000    2.896000 )
   (    8.864000    0.190000    2.896000 )
   (    9.010000    0.190000    2.896000 )
   (   10.010000    0.190000    2.896000 )
   (   11.207000    0.190000    2.896000 )
   (   12.192000    0.190000    2.896000 )
   (    0.000000    0.915000    2.896000 )
   (    0.985000    0.915000    2.896000 )
   (    1.204000    0.915000    2.896000 )
   (    2.572000    0.915000    2.896000 )
   (    2.982000    0.915000    2.896000 )
   (    5.718000    0.915000    2.896000 )
   (    6.128000    0.915000    2.896000 )
   (    8.864000    0.915000    2.896000 )
   (    9.010000    0.915000    2.896000 )
   (   10.010000    0.915000    2.896000 )
   (   11.207000    0.915000    2.896000 )
   (   12.192000    0.915000    2.896000 )
   (    0.000000    1.219000    2.896000 )
   (    0.985000    1.219000    2.896000 )
   (    1.204000    1.219000    2.896000 )
   (    2.572000    1.219000    2.896000 )
   (    2.982000    1.219000    2.896000 )
   (    5.718000    1.219000    2.896000 )
   (    6.128000    1.219000    2.896000 )
   (    8.864000    1.219000    2.896000 )
   (    9.010000    1.219000    2.896000 )
   (   10.010000    1.219000    2.896000 )
   (   11.207000    1.219000    2.896000 )
   (   12.192000    1.219000    2.896000 )
  );
 blocks
 ( 
 hex (   0   1  13  12  72  73  85  84) (  24   7  51) simpleGrading (1 1 1)
 hex (   1   2  14  13  73  74  86  85) (   5   7  51) simpleGrading (1 1 1)
 hex (   2   3  15  14  74  75  87  86) (  34   7  51) simpleGrading (1 1 1)
 hex (   3   4  16  15  75  76  88  87) (  10   7  51) simpleGrading (1 1 1)
 hex (   4   5  17  16  76  77  89  88) (  68   7  51) simpleGrading (1 1 1)
 hex (   5   6  18  17  77  78  90  89) (  10   7  51) simpleGrading (1 1 1)
 hex (   6   7  19  18  78  79  91  90) (  68   7  51) simpleGrading (1 1 1)
 hex (   7   8  20  19  79  80  92  91) (   3   7  51) simpleGrading (1 1 1)
 hex (   8   9  21  20  80  81  93  92) (  25   7  51) simpleGrading (1 1 1)
 hex (   9  10  22  21  81  82  94  93) (  29   7  51) simpleGrading (1 1 1)
 hex (  10  11  23  22  82  83  95  94) (  24   7  51) simpleGrading (1 1 1)
 hex (  13  14  26  25  85  86  98  97) (   5  18  51) simpleGrading (1 1 1)
 hex (  15  16  28  27  87  88 100  99) (  10  18  51) simpleGrading (1 1 1)
 hex (  17  18  30  29  89  90 102 101) (  10  18  51) simpleGrading (1 1 1)
 hex (  19  20  32  31  91  92 104 103) (   3  18  51) simpleGrading (1 1 1)
 hex (  21  22  34  33  93  94 106 105) (  29  18  51) simpleGrading (1 1 1)
 hex (  25  26  38  37  97  98 110 109) (   5   9  51) simpleGrading (1 1 1)
 hex (  26  27  39  38  98  99 111 110) (  34   9  51) simpleGrading (1 1 1)
 hex (  27  28  40  39  99 100 112 111) (  10   9  51) simpleGrading (1 1 1)
 hex (  28  29  41  40 100 101 113 112) (  68   9  51) simpleGrading (1 1 1)
 hex (  29  30  42  41 101 102 114 113) (  10   9  51) simpleGrading (1 1 1)
 hex (  30  31  43  42 102 103 115 114) (  68   9  51) simpleGrading (1 1 1)
 hex (  31  32  44  43 103 104 116 115) (   3   9  51) simpleGrading (1 1 1)
 hex (  32  33  45  44 104 105 117 116) (  25   9  51) simpleGrading (1 1 1)
 hex (  33  34  46  45 105 106 118 117) (  29   9  51) simpleGrading (1 1 1)
 hex (  37  38  50  49 109 110 122 121) (   5  18  51) simpleGrading (1 1 1)
 hex (  39  40  52  51 111 112 124 123) (  10  18  51) simpleGrading (1 1 1)
 hex (  41  42  54  53 113 114 126 125) (  10  18  51) simpleGrading (1 1 1)
 hex (  43  44  56  55 115 116 128 127) (   3  18  51) simpleGrading (1 1 1)
 hex (  45  46  58  57 117 118 130 129) (  29  18  51) simpleGrading (1 1 1)
 hex (  48  49  61  60 120 121 133 132) (  24   7  51) simpleGrading (1 1 1)
 hex (  49  50  62  61 121 122 134 133) (   5   7  51) simpleGrading (1 1 1)
 hex (  50  51  63  62 122 123 135 134) (  34   7  51) simpleGrading (1 1 1)
 hex (  51  52  64  63 123 124 136 135) (  10   7  51) simpleGrading (1 1 1)
 hex (  52  53  65  64 124 125 137 136) (  68   7  51) simpleGrading (1 1 1)
 hex (  53  54  66  65 125 126 138 137) (  10   7  51) simpleGrading (1 1 1)
 hex (  54  55  67  66 126 127 139 138) (  68   7  51) simpleGrading (1 1 1)
 hex (  55  56  68  67 127 128 140 139) (   3   7  51) simpleGrading (1 1 1)
 hex (  56  57  69  68 128 129 141 140) (  25   7  51) simpleGrading (1 1 1)
 hex (  57  58  70  69 129 130 142 141) (  29   7  51) simpleGrading (1 1 1)
 hex (  58  59  71  70 130 131 143 142) (  24   7  51) simpleGrading (1 1 1)
 hex (  72  73  85  84 144 145 157 156) (  24   7   3) simpleGrading (1 1 1)
 hex (  73  74  86  85 145 146 158 157) (   5   7   3) simpleGrading (1 1 1)
 hex (  74  75  87  86 146 147 159 158) (  34   7   3) simpleGrading (1 1 1)
 hex (  75  76  88  87 147 148 160 159) (  10   7   3) simpleGrading (1 1 1)
 hex (  76  77  89  88 148 149 161 160) (  68   7   3) simpleGrading (1 1 1)
 hex (  77  78  90  89 149 150 162 161) (  10   7   3) simpleGrading (1 1 1)
 hex (  78  79  91  90 150 151 163 162) (  68   7   3) simpleGrading (1 1 1)
 hex (  79  80  92  91 151 152 164 163) (   3   7   3) simpleGrading (1 1 1)
 hex (  80  81  93  92 152 153 165 164) (  25   7   3) simpleGrading (1 1 1)
 hex (  81  82  94  93 153 154 166 165) (  29   7   3) simpleGrading (1 1 1)
 hex (  82  83  95  94 154 155 167 166) (  24   7   3) simpleGrading (1 1 1)
 hex (  84  85  97  96 156 157 169 168) (  24  18   3) simpleGrading (1 1 1)
 hex (  85  86  98  97 157 158 170 169) (   5  18   3) simpleGrading (1 1 1)
 hex (  87  88 100  99 159 160 172 171) (  10  18   3) simpleGrading (1 1 1)
 hex (  89  90 102 101 161 162 174 173) (  10  18   3) simpleGrading (1 1 1)
 hex (  91  92 104 103 163 164 176 175) (   3  18   3) simpleGrading (1 1 1)
 hex (  93  94 106 105 165 166 178 177) (  29  18   3) simpleGrading (1 1 1)
 hex (  94  95 107 106 166 167 179 178) (  24  18   3) simpleGrading (1 1 1)
 hex (  96  97 109 108 168 169 181 180) (  24   9   3) simpleGrading (1 1 1)
 hex (  97  98 110 109 169 170 182 181) (   5   9   3) simpleGrading (1 1 1)
 hex (  98  99 111 110 170 171 183 182) (  34   9   3) simpleGrading (1 1 1)
 hex (  99 100 112 111 171 172 184 183) (  10   9   3) simpleGrading (1 1 1)
 hex ( 100 101 113 112 172 173 185 184) (  68   9   3) simpleGrading (1 1 1)
 hex ( 101 102 114 113 173 174 186 185) (  10   9   3) simpleGrading (1 1 1)
 hex ( 102 103 115 114 174 175 187 186) (  68   9   3) simpleGrading (1 1 1)
 hex ( 103 104 116 115 175 176 188 187) (   3   9   3) simpleGrading (1 1 1)
 hex ( 104 105 117 116 176 177 189 188) (  25   9   3) simpleGrading (1 1 1)
 hex ( 105 106 118 117 177 178 190 189) (  29   9   3) simpleGrading (1 1 1)
 hex ( 106 107 119 118 178 179 191 190) (  24   9   3) simpleGrading (1 1 1)
 hex ( 108 109 121 120 180 181 193 192) (  24  18   3) simpleGrading (1 1 1)
 hex ( 109 110 122 121 181 182 194 193) (   5  18   3) simpleGrading (1 1 1)
 hex ( 111 112 124 123 183 184 196 195) (  10  18   3) simpleGrading (1 1 1)
 hex ( 113 114 126 125 185 186 198 197) (  10  18   3) simpleGrading (1 1 1)
 hex ( 115 116 128 127 187 188 200 199) (   3  18   3) simpleGrading (1 1 1)
 hex ( 117 118 130 129 189 190 202 201) (  29  18   3) simpleGrading (1 1 1)
 hex ( 118 119 131 130 190 191 203 202) (  24  18   3) simpleGrading (1 1 1)
 hex ( 120 121 133 132 192 193 205 204) (  24   7   3) simpleGrading (1 1 1)
 hex ( 121 122 134 133 193 194 206 205) (   5   7   3) simpleGrading (1 1 1)
 hex ( 122 123 135 134 194 195 207 206) (  34   7   3) simpleGrading (1 1 1)
 hex ( 123 124 136 135 195 196 208 207) (  10   7   3) simpleGrading (1 1 1)
 hex ( 124 125 137 136 196 197 209 208) (  68   7   3) simpleGrading (1 1 1)
 hex ( 125 126 138 137 197 198 210 209) (  10   7   3) simpleGrading (1 1 1)
 hex ( 126 127 139 138 198 199 211 210) (  68   7   3) simpleGrading (1 1 1)
 hex ( 127 128 140 139 199 200 212 211) (   3   7   3) simpleGrading (1 1 1)
 hex ( 128 129 141 140 200 201 213 212) (  25   7   3) simpleGrading (1 1 1)
 hex ( 129 130 142 141 201 202 214 213) (  29   7   3) simpleGrading (1 1 1)
 hex ( 130 131 143 142 202 203 215 214) (  24   7   3) simpleGrading (1 1 1)
 hex ( 144 145 157 156 216 217 229 228) (  24   7  17) simpleGrading (1 1 1)
 hex ( 145 146 158 157 217 218 230 229) (   5   7  17) simpleGrading (1 1 1)
 hex ( 146 147 159 158 218 219 231 230) (  34   7  17) simpleGrading (1 1 1)
 hex ( 147 148 160 159 219 220 232 231) (  10   7  17) simpleGrading (1 1 1)
 hex ( 148 149 161 160 220 221 233 232) (  68   7  17) simpleGrading (1 1 1)
 hex ( 149 150 162 161 221 222 234 233) (  10   7  17) simpleGrading (1 1 1)
 hex ( 150 151 163 162 222 223 235 234) (  68   7  17) simpleGrading (1 1 1)
 hex ( 151 152 164 163 223 224 236 235) (   3   7  17) simpleGrading (1 1 1)
 hex ( 152 153 165 164 224 225 237 236) (  25   7  17) simpleGrading (1 1 1)
 hex ( 153 154 166 165 225 226 238 237) (  29   7  17) simpleGrading (1 1 1)
 hex ( 154 155 167 166 226 227 239 238) (  24   7  17) simpleGrading (1 1 1)
 hex ( 156 157 169 168 228 229 241 240) (  24  18  17) simpleGrading (1 1 1)
 hex ( 157 158 170 169 229 230 242 241) (   5  18  17) simpleGrading (1 1 1)
 hex ( 158 159 171 170 230 231 243 242) (  34  18  17) simpleGrading (1 1 1)
 hex ( 159 160 172 171 231 232 244 243) (  10  18  17) simpleGrading (1 1 1)
 hex ( 160 161 173 172 232 233 245 244) (  68  18  17) simpleGrading (1 1 1)
 hex ( 161 162 174 173 233 234 246 245) (  10  18  17) simpleGrading (1 1 1)
 hex ( 162 163 175 174 234 235 247 246) (  68  18  17) simpleGrading (1 1 1)
 hex ( 163 164 176 175 235 236 248 247) (   3  18  17) simpleGrading (1 1 1)
 hex ( 164 165 177 176 236 237 249 248) (  25  18  17) simpleGrading (1 1 1)
 hex ( 165 166 178 177 237 238 250 249) (  29  18  17) simpleGrading (1 1 1)
 hex ( 166 167 179 178 238 239 251 250) (  24  18  17) simpleGrading (1 1 1)
 hex ( 168 169 181 180 240 241 253 252) (  24   9  17) simpleGrading (1 1 1)
 hex ( 169 170 182 181 241 242 254 253) (   5   9  17) simpleGrading (1 1 1)
 hex ( 170 171 183 182 242 243 255 254) (  34   9  17) simpleGrading (1 1 1)
 hex ( 171 172 184 183 243 244 256 255) (  10   9  17) simpleGrading (1 1 1)
 hex ( 172 173 185 184 244 245 257 256) (  68   9  17) simpleGrading (1 1 1)
 hex ( 173 174 186 185 245 246 258 257) (  10   9  17) simpleGrading (1 1 1)
 hex ( 174 175 187 186 246 247 259 258) (  68   9  17) simpleGrading (1 1 1)
 hex ( 175 176 188 187 247 248 260 259) (   3   9  17) simpleGrading (1 1 1)
 hex ( 176 177 189 188 248 249 261 260) (  25   9  17) simpleGrading (1 1 1)
 hex ( 177 178 190 189 249 250 262 261) (  29   9  17) simpleGrading (1 1 1)
 hex ( 178 179 191 190 250 251 263 262) (  24   9  17) simpleGrading (1 1 1)
 hex ( 180 181 193 192 252 253 265 264) (  24  18  17) simpleGrading (1 1 1)
 hex ( 181 182 194 193 253 254 266 265) (   5  18  17) simpleGrading (1 1 1)
 hex ( 182 183 195 194 254 255 267 266) (  34  18  17) simpleGrading (1 1 1)
 hex ( 183 184 196 195 255 256 268 267) (  10  18  17) simpleGrading (1 1 1)
 hex ( 184 185 197 196 256 257 269 268) (  68  18  17) simpleGrading (1 1 1)
 hex ( 185 186 198 197 257 258 270 269) (  10  18  17) simpleGrading (1 1 1)
 hex ( 186 187 199 198 258 259 271 270) (  68  18  17) simpleGrading (1 1 1)
 hex ( 187 188 200 199 259 260 272 271) (   3  18  17) simpleGrading (1 1 1)
 hex ( 188 189 201 200 260 261 273 272) (  25  18  17) simpleGrading (1 1 1)
 hex ( 189 190 202 201 261 262 274 273) (  29  18  17) simpleGrading (1 1 1)
 hex ( 190 191 203 202 262 263 275 274) (  24  18  17) simpleGrading (1 1 1)
 hex ( 192 193 205 204 264 265 277 276) (  24   7  17) simpleGrading (1 1 1)
 hex ( 193 194 206 205 265 266 278 277) (   5   7  17) simpleGrading (1 1 1)
 hex ( 194 195 207 206 266 267 279 278) (  34   7  17) simpleGrading (1 1 1)
 hex ( 195 196 208 207 267 268 280 279) (  10   7  17) simpleGrading (1 1 1)
 hex ( 196 197 209 208 268 269 281 280) (  68   7  17) simpleGrading (1 1 1)
 hex ( 197 198 210 209 269 270 282 281) (  10   7  17) simpleGrading (1 1 1)
 hex ( 198 199 211 210 270 271 283 282) (  68   7  17) simpleGrading (1 1 1)
 hex ( 199 200 212 211 271 272 284 283) (   3   7  17) simpleGrading (1 1 1)
 hex ( 200 201 213 212 272 273 285 284) (  25   7  17) simpleGrading (1 1 1)
 hex ( 201 202 214 213 273 274 286 285) (  29   7  17) simpleGrading (1 1 1)
 hex ( 202 203 215 214 274 275 287 286) (  24   7  17) simpleGrading (1 1 1)
  );
defaultPatch
{
    name default; // optional
    type patch;
}

 boundary
 ( 
 northbc 
   {   
      type patch;   
       faces        
       (            
     (  60 132 133  61)
     ( 132 204 205 133)
     ( 204 276 277 205)
     (  61 133 134  62)
     ( 133 205 206 134)
     ( 205 277 278 206)
     (  62 134 135  63)
     ( 134 206 207 135)
     ( 206 278 279 207)
     (  63 135 136  64)
     ( 135 207 208 136)
     ( 207 279 280 208)
     (  64 136 137  65)
     ( 136 208 209 137)
     ( 208 280 281 209)
     (  65 137 138  66)
     ( 137 209 210 138)
     ( 209 281 282 210)
     (  66 138 139  67)
     ( 138 210 211 139)
     ( 210 282 283 211)
     (  67 139 140  68)
     ( 139 211 212 140)
     ( 211 283 284 212)
     (  68 140 141  69)
     ( 140 212 213 141)
     ( 212 284 285 213)
     (  69 141 142  70)
     ( 141 213 214 142)
     ( 213 285 286 214)
     (  70 142 143  71)
     ( 142 214 215 143)
     ( 214 286 287 215)
       );            
   }   
 eastbc  
   {   
      type patch;   
       faces        
       (            
     (  11  23  95  83)
     (  83  95 167 155)
     ( 155 167 239 227)
     (  95 107 179 167)
     ( 167 179 251 239)
     ( 107 119 191 179)
     ( 179 191 263 251)
     ( 119 131 203 191)
     ( 191 203 275 263)
     (  59  71 143 131)
     ( 131 143 215 203)
     ( 203 215 287 275)
       );            
   }   
 southbc 
   {   
      type patch;   
       faces        
       (            
     (   0   1  73  72)
     (  72  73 145 144)
     ( 144 145 217 216)
     (   1   2  74  73)
     (  73  74 146 145)
     ( 145 146 218 217)
     (   2   3  75  74)
     (  74  75 147 146)
     ( 146 147 219 218)
     (   3   4  76  75)
     (  75  76 148 147)
     ( 147 148 220 219)
     (   4   5  77  76)
     (  76  77 149 148)
     ( 148 149 221 220)
     (   5   6  78  77)
     (  77  78 150 149)
     ( 149 150 222 221)
     (   6   7  79  78)
     (  78  79 151 150)
     ( 150 151 223 222)
     (   7   8  80  79)
     (  79  80 152 151)
     ( 151 152 224 223)
     (   8   9  81  80)
     (  80  81 153 152)
     ( 152 153 225 224)
     (   9  10  82  81)
     (  81  82 154 153)
     ( 153 154 226 225)
     (  10  11  83  82)
     (  82  83 155 154)
     ( 154 155 227 226)
       );            
   }   
 westbc  
   {   
      type patch;   
       faces        
       (            
     (   0  72  84  12)
     (  72 144 156  84)
     ( 144 216 228 156)
     (  84 156 168  96)
     ( 156 228 240 168)
     (  96 168 180 108)
     ( 168 240 252 180)
     ( 108 180 192 120)
     ( 180 252 264 192)
     (  48 120 132  60)
     ( 120 192 204 132)
     ( 192 264 276 204)
       );            
   }   
 topbc   
   {   
      type patch;   
       faces        
       (            
     ( 216 217 229 228)
     ( 228 229 241 240)
     ( 240 241 253 252)
     ( 252 253 265 264)
     ( 264 265 277 276)
     ( 217 218 230 229)
     ( 229 230 242 241)
     ( 241 242 254 253)
     ( 253 254 266 265)
     ( 265 266 278 277)
     ( 218 219 231 230)
     ( 230 231 243 242)
     ( 242 243 255 254)
     ( 254 255 267 266)
     ( 266 267 279 278)
     ( 219 220 232 231)
     ( 231 232 244 243)
     ( 243 244 256 255)
     ( 255 256 268 267)
     ( 267 268 280 279)
     ( 220 221 233 232)
     ( 232 233 245 244)
     ( 244 245 257 256)
     ( 256 257 269 268)
     ( 268 269 281 280)
     ( 221 222 234 233)
     ( 233 234 246 245)
     ( 245 246 258 257)
     ( 257 258 270 269)
     ( 269 270 282 281)
     ( 222 223 235 234)
     ( 234 235 247 246)
     ( 246 247 259 258)
     ( 258 259 271 270)
     ( 270 271 283 282)
     ( 223 224 236 235)
     ( 235 236 248 247)
     ( 247 248 260 259)
     ( 259 260 272 271)
     ( 271 272 284 283)
     ( 224 225 237 236)
     ( 236 237 249 248)
     ( 248 249 261 260)
     ( 260 261 273 272)
     ( 272 273 285 284)
     ( 225 226 238 237)
     ( 237 238 250 249)
     ( 249 250 262 261)
     ( 261 262 274 273)
     ( 273 274 286 285)
     ( 226 227 239 238)
     ( 238 239 251 250)
     ( 250 251 263 262)
     ( 262 263 275 274)
     ( 274 275 287 286)
       );            
   }   
 bottombc
   {   
      type patch;   
       faces        
       (            
     (   0  12  13   1)
     (  48  60  61  49)
     (   1  13  14   2)
     (  13  25  26  14)
     (  25  37  38  26)
     (  37  49  50  38)
     (  49  61  62  50)
     (   2  14  15   3)
     (  26  38  39  27)
     (  50  62  63  51)
     (   3  15  16   4)
     (  15  27  28  16)
     (  27  39  40  28)
     (  39  51  52  40)
     (  51  63  64  52)
     (   4  16  17   5)
     (  28  40  41  29)
     (  52  64  65  53)
     (   5  17  18   6)
     (  17  29  30  18)
     (  29  41  42  30)
     (  41  53  54  42)
     (  53  65  66  54)
     (   6  18  19   7)
     (  30  42  43  31)
     (  54  66  67  55)
     (   7  19  20   8)
     (  19  31  32  20)
     (  31  43  44  32)
     (  43  55  56  44)
     (  55  67  68  56)
     (   8  20  21   9)
     (  32  44  45  33)
     (  56  68  69  57)
     (   9  21  22  10)
     (  21  33  34  22)
     (  33  45  46  34)
     (  45  57  58  46)
     (  57  69  70  58)
     (  10  22  23  11)
     (  58  70  71  59)
       );            
   }   
 inner
   {   
      type patch;   
       faces        
       (            
     (  26  98  99  27)
     (  28 100 101  29)
     (  30 102 103  31)
     (  32 104 105  33)
     (  48 120 121  49)
     (  50 122 123  51)
     (  52 124 125  53)
     (  54 126 127  55)
     (  56 128 129  57)
     (  58 130 131  59)
     (  98 170 171  99)
     ( 100 172 173 101)
     ( 102 174 175 103)
     ( 104 176 177 105)
     ( 122 194 195 123)
     ( 124 196 197 125)
     ( 126 198 199 127)
     ( 128 200 201 129)
     (  17  29 101  89)
     (  19  31 103  91)
     (  21  33 105  93)
     (  -1  -1  -1  -1)
     (  25  37 109  97)
     (  39  51 123 111)
     (  41  53 125 113)
     (  43  55 127 115)
     (  45  57 129 117)
     (  -1  -1  -1  -1)
     (  87  99 171 159)