/*--------------------------------*- C++ -*----------------------------------*\
  =========                 |
  \\      /  F ield         | OpenFOAM: The Open Source CFD Toolbox
   \\    /   O peration     | Website:  https://openfoam.org
    \\  /    A nd           | Version:  10
     \\/     M anipulation  |
\*---------------------------------------------------------------------------*/

FoamFile
{

    format      ascii;
    class       dictionary;
    object      surfaceFeaturesDict;
}
// * * * * * * * * * * * * * * * * * * * * * * * * * * * * * * * * * * * * * //

  "model2.stl"
  {
      surfaces
      (
        "model2.stl"
      );
      includedAngle       150;
      subsetFeatures
      {
          nonManifoldEdges    yes;
          openEdges           yes;
      }
      writeObj                no;
  }


