/*--------------------------------*- C++ -*----------------------------------*\
  =========                 |
  \\      /  F ield         | OpenFOAM: The Open Source CFD Toolbox
   \\    /   O peration     | Website:  https://openfoam.org
    \\  /    A nd           | Version:  10
     \\/     M anipulation  |
\*---------------------------------------------------------------------------*/
FoamFile
{
    format      ascii;
    class       volScalarField;
    location    "0";
    object      p;
}
// * * * * * * * * * * * * * * * * * * * * * * * * * * * * * * * * * * * * * //

dimensions      [1 -1 -2 0 0 0 0];

//internalField   uniform 101325;

internalField   #codeStream
{
    codeInclude
    #{
	#include "fvCFD.H"
    #};

    codeOptions
    #{
	-I$(LIB_SRC)/finiteVolume/lnInclude \
	-I$(LIB_SRC)/meshTools/lnInclude
    #};
	
    codeLibs
    #{
	-lmeshTools \
	-lfiniteVolume
    #};
	
    code

    #{
	const IOdictionary& d = static_cast<const IOdictionary&>(dict);
	const fvMesh& mesh = refCast<const fvMesh>(d.db());

    scalarField P(mesh.nCells());
	const vectorField& CC = mesh.C(); //cell center 

    scalar zT = - 8724.032758300542; //from Python in m
    scalar P0 = 101325;
    
    // pressure as function of height
	forAll(P,cellI)
	{
       // scalar z  = CC[cellI].z(); 
        P[cellI]  = P0;//*exp(z/zT);
	}
	writeEntry(os,"", P);
    #};
};



boundaryField
{
    "(north|south|east|west)"
    {
        // type            calculated;
        // value           $internalField;
        type            zeroGradient;

    }

    "(top|bottom)"
    {
      //  type            calculated;
      //  value           $internalField;
        type            zeroGradient;
    }
}

// ************************************************************************* //
