/*--------------------------------*- C++ -*----------------------------------*\
  =========                 |
  \\      /  F ield         | OpenFOAM: The Open Source CFD Toolbox
   \\    /   O peration     | Website:  https://openfoam.org
    \\  /    A nd           | Version:  10
     \\/     M anipulation  |
\*---------------------------------------------------------------------------*/
FoamFile
{
    format          ascii;
    class           dictionary;
    object          controlDict;
}
// * * * * * * * * * * * * * * * * * * * * * * * * * * * * * * * * * * * * * //

application     forensicParticleFoam;

startFrom       startTime;

startTime       23400.0;

stopAt          endTime;

endTime         30000.0;

deltaT          1.0;

writeControl    adjustableRunTime;

writeInterval   300.0; 

purgeWrite      0;

writeFormat     binary;

writePrecision  6;

writeCompression off;

timeFormat      general;

timePrecision   6;

graphFormat     raw;

runTimeModifiable yes;

adjustTimeStep  yes; /// <<<<<<<---- variable dt

maxCo           0.6;

maxDeltaT       10.0;


// ************************************************************************* //

libs ("libatmosphericModels.so");
