/*--------------------------------*- C++ -*----------------------------------*\
  =========                 |
  \\      /  F ield         | OpenFOAM: The Open Source CFD Toolbox
   \\    /   O peration     | Website:  https://openfoam.org
    \\  /    A nd           | Version:  10
     \\/     M anipulation  |
\*---------------------------------------------------------------------------*/
FoamFile
{
    format          ascii;
    class           dictionary;
    object          controlDict;
}
// * * * * * * * * * * * * * * * * * * * * * * * * * * * * * * * * * * * * * //

application     forensicWindFoam;

startFrom       latestTime;

startTime       0.0;

stopAt          endTime;

endTime         86400.0;

deltaT          1.0;

writeControl    adjustableRunTime;

writeInterval   30.0; //120

purgeWrite      0;

writeFormat     binary;

writePrecision  6;

writeCompression off;

timeFormat      general;

timePrecision   6;

graphFormat     raw;

runTimeModifiable yes;

adjustTimeStep  yes; /// <<<<<<<---- variable dt

maxCo           2.9;

maxDeltaT       10.0;


// ************************************************************************* //

libs ("libatmosphericModels.so");
