/*--------------------------------*- C++ -*----------------------------------*\
  =========                 |
  \\      /  F ield         | OpenFOAM: The Open Source CFD Toolbox
   \\    /   O peration     | Website:  https://openfoam.org
    \\  /    A nd           | Version:  10
     \\/     M anipulation  |
\*---------------------------------------------------------------------------*/
FoamFile
{
    format      ascii;
    class       dictionary;
    location    "system";
    object      setAtmBoundaryLayerDict;
}
// * * * * * * * * * * * * * * * * * * * * * * * * * * * * * * * * * * * * * //
    flowDir         (1 0 0);
    zDir            (0 0 1);
    Uref            2.57222;
    Zref            9.1;
    z0              uniform 0.5;
    zGround         uniform 0.0;

// * * * * * * * * * * * * * * * * * * * * * * * * * * * * * * * * * * * * * //

