/*--------------------------------*- C++ -*----------------------------------*\
  =========                 |
  \\      /  F ield         | OpenFOAM: The Open Source CFD Toolbox
   \\    /   O peration     | Website:  https://openfoam.org
    \\  /    A nd           | Version:  10
     \\/     M anipulation  |
\*---------------------------------------------------------------------------*/
FoamFile
{
    format      ascii;
    class       dictionary;
    object      topoSetDict;
}

// * * * * * * * * * * * * * * * * * * * * * * * * * * * * * * * * * * * * * //

actions
(
    {
        name    hvac1;
        type    faceSet;
        action  new;
        source  boxToFace;
        box     (0.982 -0.148 0.152)(0.988 0.148 1.9);
    }

    {
        name    hvac2;
        type    faceSet;
        action  new;
        source  boxToFace;
        box     (11.20 -0.148 0.152)(11.25 0.148 1.9);
    }


    {
        name    f1a;
        type    faceSet;
        action  new;
        source  boxToFace;
        box     (0.208 -0.92 0.83)(0.558 -0.90 1.2);
    } 
    {
        name    f1b;
        type    faceSet;
        action  new;
        source  boxToFace;
        box     (0.208 -0.92 1.44)(0.558 -0.90 1.896);
    }

    {
        name    f2a;
        type    faceSet;
        action  new;
        source  boxToFace;
        box     (0.208  0.90 0.83)(0.8 0.92 1.2);
    } 
    {
        name    f2b;
        type    faceSet;
        action  new;
        source  boxToFace;
        box     (0.208  0.90 1.44)(0.8 0.92 1.896);
    }

    {
        name    f3a;
        type    faceSet;
        action  new;
        source  boxToFace;
        box     (11.534 -0.92 0.83)(11.884 -0.90 1.2);
    }
    
    {
        name    f3b;
        type    faceSet;
        action  new;
        source  boxToFace;
        box     (11.534 -0.92 1.44)(11.884 -0.90 1.896);
    }
    
    {
        name    f4a;
        type    faceSet;
        action  new;
        source  boxToFace;
        box     (11.534  0.90 0.3)(11.884 0.92 0.7);
    } 

    {
        name    f4b;
        type    faceSet;
        action  new;
        source  boxToFace;
        box     (11.534  0.90 0.3)(11.884 0.92 0.7);
    }
    //*****************//
  

    {
        name    rack1;
        type    faceSet;
        action  new;
        source  boxToFace;
        box     (1.24  -0.192 0.1)(2.56 -0.188 2.08);
    } 

    {
        name    rack2;
        type    faceSet;
        action  new;
        source  boxToFace;
        box     (3.02  -0.192 0.1)(5.70 -0.188 2.08);    
    } 

    {
        name    rack3;
        type    faceSet;
        action  new;
        source  boxToFace;
        box     (6.18  -0.192 0.1)(8.80 -0.188 2.08);    
    }
    
    {
        name    rack4;
        type    faceSet;
        action  new;
        source  boxToFace;
        box     (1.24  0.188 0.1)(2.56 0.192 2.08);
    } 

    {
        name    rack5;
        type    faceSet;
        action  new;
        source  boxToFace;
        box     (3.02  0.188 0.1)(5.70 0.192 2.08);    
    } 

    {
        name    rack6;
        type    faceSet;
        action  new;
        source  boxToFace;
        box     (6.18  0.188 0.1)(8.80 0.192 2.08);    
    }


    {
        name    faulty;
        type    faceSet;
        action  new;
        source  boxToFace;
        box     (3.914 -0.192 1.25)(4.364 -0.188 1.480);    
    } 

    // ******************* //
#include "fan.h"
  
);

// ************************************************************************* //
