/*--------------------------------*- C++ -*----------------------------------*\
  =========                 |
  \\      /  F ield         | OpenFOAM: The Open Source CFD Toolbox
   \\    /   O peration     | Website:  https://openfoam.org
    \\  /    A nd           | Version:  10
     \\/     M anipulation  |
\*---------------------------------------------------------------------------*/
FoamFile
{
    format      ascii;
    class       dictionary;
    object      topoSetDict;
}

// * * * * * * * * * * * * * * * * * * * * * * * * * * * * * * * * * * * * * //

actions
(
    {
        name    f0;
        type    faceSet;
        action  new;
        source  boxToFace;
        box     (0.982 -0.15 1.0)(0.988 0.15 1.3);
    }
    {
        name    f1;
        type    faceSet;
        action  new;
        source  boxToFace;
        box     (0.4 -0.97 0.3)(0.8 -0.95 0.7);
    } 
    {
        name    f2;
        type    faceSet;
        action  new;
        source  boxToFace;
        box     (0.4  0.78 0.3)(0.8 0.79 0.7);
    } 



);

// ************************************************************************* //
