/*--------------------------------*- C++ -*----------------------------------*\
  =========                 |
  \\      /  F ield         | OpenFOAM: The Open Source CFD Toolbox
   \\    /   O peration     | Website:  https://openfoam.org
    \\  /    A nd           | Version:  10
     \\/     M anipulation  |
\*---------------------------------------------------------------------------*/
FoamFile
{
    format      ascii;
    class       volScalarField;
    location    "0";
    object      H2O;
}
// * * * * * * * * * * * * * * * * * * * * * * * * * * * * * * * * * * * * * //

dimensions      [0 0 0 0 0 0 0];

internalField   uniform 0.0;

boundaryField
{
    "(north|south|east|west)"
    {
        type            zeroGradient;
    }

    top
    {
        type            zeroGradient;
    }

    "(bottom|terrain)"
    {
        type            zeroGradient;
    }

    tank1
    {
        type            fixedValue;
        value           uniform 0.08184929937124252;
    }

    tank2
    {
        type            fixedValue;
        value           uniform 0.08943752944469452;
    }

    containment
    {
	    type            fixedValue;
        value           uniform 0.01052734162658453;
    }



    default
    {
        type            zeroGradient;
    }
  
}


// ************************************************************************* //
