/*--------------------------------*- C++ -*----------------------------------*\
  =========                 |
  \\      /  F ield         | OpenFOAM: The Open Source CFD Toolbox
   \\    /   O peration     | Website:  https://openfoam.org
    \\  /    A nd           | Version:  10
     \\/     M anipulation  |
\*---------------------------------------------------------------------------*/
FoamFile
{
    format      ascii;
    class       volScalarField;
    location    "0";
    object      N2;
}
// * * * * * * * * * * * * * * * * * * * * * * * * * * * * * * * * * * * * * //

dimensions      [0 0 0 0 0 0 0];

internalField   uniform  0.76699;;

boundaryField
{
    "(north|south|east|west)"
    {
        type            zeroGradient;
    }

    top
    {
        type            zeroGradient;
    }

    "(bottom|terrain)"
    {
        type            zeroGradient;
    }

    tank1
    {
        type            fixedValue;
        value           uniform 0.8;
    }



    default
    {
        type            zeroGradient;
    }
  
}


// ************************************************************************* //
